Version 4
SHEET 1 1088 680
WIRE 432 80 -96 80
WIRE 432 128 432 80
WIRE 480 176 432 176
WIRE 384 208 64 208
WIRE 432 240 432 224
WIRE 480 240 480 176
WIRE 480 240 432 240
WIRE -96 288 -96 80
WIRE 64 288 64 208
WIRE -96 432 -96 368
WIRE 64 432 64 368
WIRE 64 432 -96 432
WIRE 432 432 432 240
WIRE 432 432 64 432
WIRE 432 448 432 432
FLAG 432 448 0
SYMBOL nmos4 384 128 R0
SYMATTR InstName nmos1
SYMATTR Value TSMC180nmN
SYMATTR Value2 l=0.18um w=1um
SYMBOL voltage 64 272 R0
SYMATTR InstName Vg
SYMATTR Value 700m
SYMBOL voltage -96 272 R0
SYMATTR InstName Vds
SYMATTR Value 1
TEXT 544 56 Left 2 !.INC /Users/javi/codes/LTspice/lib/tsmc180nm.lib
TEXT 552 96 Left 2 !.DC Vds 0 1.8 1m
TEXT 560 136 Left 2 !.measure DC I(Vds) param Vds
